Version 4
SHEET 1 3040 2984
WIRE 1200 2528 1120 2528
WIRE 1392 2528 1280 2528
WIRE 1632 2528 1392 2528
WIRE 1840 2528 1680 2528
WIRE 1888 2528 1840 2528
WIRE 1120 2544 1120 2528
WIRE 1632 2544 1632 2528
WIRE 1680 2544 1680 2528
WIRE 1840 2544 1840 2528
WIRE 1648 2608 1568 2608
WIRE 1120 2640 1120 2624
WIRE 1568 2640 1568 2608
WIRE 1568 2640 1120 2640
WIRE 1840 2656 1840 2624
WIRE 1120 2672 1120 2640
FLAG 1840 2656 0
FLAG 1120 2672 0
FLAG 1888 2528 OUT
FLAG 1392 2528 in
SYMBOL VOLTAGE 1120 2528 R0
WINDOW 123 24 132 Left 2
WINDOW 39 0 0 Left 2
SYMATTR Value2 AC 1
SYMATTR InstName V1
SYMATTR Value ""
SYMBOL res 1184 2544 R270
WINDOW 0 32 56 VTop 2
WINDOW 3 0 56 VBottom 2
SYMATTR InstName R1
SYMATTR Value 50
SYMBOL res 1856 2640 R180
WINDOW 0 36 76 Left 2
WINDOW 3 36 40 Left 2
SYMATTR InstName R2
SYMATTR Value 1Meg
SYMBOL BuzFB 1648 2576 R0
SYMATTR InstName X1
TEXT 1536 2464 Left 2 !.ac lin 1000 2k 4k
