Version 4
SHEET 1 3040 2984
WIRE 1712 2608 1600 2608
WIRE 1872 2608 1760 2608
WIRE 1904 2608 1872 2608
WIRE 2064 2608 1984 2608
WIRE 2144 2608 2064 2608
WIRE 2064 2624 2064 2608
WIRE 1600 2672 1600 2608
WIRE 1728 2672 1600 2672
WIRE 1600 2736 1600 2672
WIRE 2064 2752 2064 2704
WIRE 1600 2848 1600 2816
FLAG 1600 2848 0
FLAG 2064 2752 0
FLAG 1600 2608 OUT
FLAG 1872 2608 in
SYMBOL VOLTAGE 2064 2608 R0
WINDOW 123 24 132 Left 2
WINDOW 39 0 0 Left 2
SYMATTR Value2 AC 1
SYMATTR InstName V1
SYMATTR Value ""
SYMBOL res 2000 2592 R90
WINDOW 0 0 56 VBottom 2
WINDOW 3 32 56 VTop 2
SYMATTR InstName R1
SYMATTR Value 50
SYMBOL res 1616 2832 R180
WINDOW 0 36 76 Left 2
WINDOW 3 36 40 Left 2
SYMATTR InstName R2
SYMATTR Value 1k
SYMBOL BuzFB 1728 2640 R0
WINDOW 39 -113 178 Left 2
SYMATTR InstName X1
SYMATTR SpiceLine Rs=114 Cp=66n Co=6n Cs=8.6n Ls=260m ns2p={RATIO}
TEXT 1608 2512 Left 2 !.ac lin 1000 2k 4k
TEXT 1600 2544 Left 2 !.param RATIO=7
TEXT 1608 2480 Left 2 ;.step param RATIO LIST   7 8
