Version 4
SHEET 1 2144 1132
WIRE 48 608 -64 608
WIRE 416 608 48 608
WIRE 48 640 48 608
WIRE 416 736 416 608
WIRE 48 784 48 720
WIRE 112 784 48 784
WIRE 176 784 112 784
WIRE 320 784 256 784
WIRE 352 784 320 784
WIRE 320 816 320 784
WIRE -64 880 -64 608
WIRE 48 880 48 784
WIRE 320 912 320 880
WIRE 320 912 112 912
WIRE 368 912 320 912
WIRE 416 912 416 832
WIRE 416 912 368 912
WIRE 416 928 416 912
WIRE -64 1024 -64 960
WIRE 48 1024 48 928
WIRE 48 1024 -64 1024
WIRE 416 1024 416 1008
WIRE 416 1024 48 1024
WIRE 416 1040 416 1024
FLAG 416 1040 0
FLAG 368 912 out1
FLAG 112 784 fb
DATAFLAG 416 912 ""
SYMBOL npn 352 736 R0
SYMATTR InstName Q2
SYMATTR Value 2N2222
SYMBOL BuzFB 80 912 R270
WINDOW 39 -201 -186 VRight 2
SYMATTR InstName X2
SYMBOL res 400 912 R0
SYMATTR InstName R4
SYMATTR Value 510
SYMBOL res 32 624 R0
SYMATTR InstName R5
SYMATTR Value 110k
SYMBOL voltage -64 864 R0
WINDOW 123 0 0 Left 0
WINDOW 39 0 0 Left 0
SYMATTR InstName V1
SYMATTR Value 28V
SYMBOL diode 336 880 R180
WINDOW 0 24 64 Left 2
WINDOW 3 24 0 Left 2
SYMATTR InstName D1
SYMATTR Value 1N4148
SYMBOL res 272 768 R90
WINDOW 0 0 56 VBottom 2
WINDOW 3 32 56 VTop 2
SYMATTR InstName R1
SYMATTR Value 10k
TEXT -40 552 Left 2 !.tran 0 30m 0
TEXT -40 512 Left 2 !.inc bjt.sub
