Version 4
SHEET 1 1340 1132
WIRE 256 128 16 128
WIRE 288 128 256 128
WIRE 400 128 288 128
WIRE 16 144 16 128
WIRE 288 144 288 128
WIRE 400 144 400 128
WIRE 240 240 -80 240
WIRE 288 240 288 224
WIRE 288 240 240 240
WIRE 400 240 400 224
WIRE 288 256 288 240
WIRE -80 304 -80 240
WIRE 16 304 16 224
WIRE 16 304 -32 304
WIRE 64 304 16 304
WIRE 208 304 144 304
WIRE 224 304 208 304
WIRE 288 400 288 352
WIRE 208 608 48 608
WIRE 288 608 208 608
WIRE 48 640 48 608
WIRE 288 736 288 608
WIRE 48 784 48 720
WIRE 224 784 48 784
WIRE 48 880 48 784
WIRE 240 912 112 912
WIRE 288 912 288 832
WIRE 288 912 240 912
WIRE 288 928 288 912
WIRE 48 1024 48 928
WIRE 288 1024 288 1008
WIRE 288 1024 48 1024
WIRE 288 1040 288 1024
FLAG 288 400 0
FLAG 400 240 0
FLAG -32 304 F
FLAG 208 304 B
FLAG 256 128 VCC
FLAG -64 368 0
FLAG 240 240 out
FLAG 288 1040 0
FLAG 208 608 VCC
FLAG 240 912 out1
SYMBOL res 48 320 R270
WINDOW 0 32 56 VTop 2
WINDOW 3 0 56 VBottom 2
SYMATTR InstName R1
SYMATTR Value {Rfb}
SYMBOL res 0 128 R0
SYMATTR InstName R2
SYMATTR Value {Rbias}
SYMBOL res 272 128 R0
SYMATTR InstName R3
SYMATTR Value 510
SYMBOL npn 224 256 R0
SYMATTR InstName Q1
SYMATTR Value 2N2222
SYMBOL voltage 400 128 R0
WINDOW 123 0 0 Left 0
WINDOW 39 0 0 Left 0
SYMATTR InstName V1
SYMATTR Value 30
SYMBOL BuzFB -64 336 R0
WINDOW 39 -95 108 Left 2
SYMATTR InstName X1
SYMBOL npn 224 736 R0
SYMATTR InstName Q2
SYMATTR Value 2N2222
SYMBOL BuzFB 80 912 R270
WINDOW 39 -201 -186 VRight 2
SYMATTR InstName X2
SYMBOL res 272 912 R0
SYMATTR InstName R4
SYMATTR Value 1k
SYMBOL res 32 624 R0
SYMATTR InstName R5
SYMATTR Value 56k
TEXT -48 -24 Left 2 !.tran 0 {103/3k} 5m
TEXT -48 8 Left 2 !.param Rbias=150k
TEXT -48 32 Left 2 !.param Rfb=500
