Version 4
SHEET 1 1844 876
WIRE 240 -192 64 -192
WIRE 416 -192 240 -192
WIRE 704 -192 416 -192
WIRE 704 -144 704 -192
WIRE 336 -128 144 -128
WIRE 496 -128 336 -128
WIRE 608 -128 496 -128
WIRE 144 -112 144 -128
WIRE 336 -112 336 -128
WIRE 496 -96 496 -128
WIRE 608 -96 608 -128
WIRE 64 -64 64 -192
WIRE 240 -32 240 -192
WIRE 416 -32 416 -192
WIRE 704 -32 704 -64
WIRE 144 0 144 -32
WIRE 144 0 64 0
WIRE 176 0 144 0
WIRE 208 0 176 0
WIRE 320 0 272 0
WIRE 336 0 336 -32
WIRE 336 0 320 0
WIRE 384 0 336 0
WIRE 480 0 448 0
WIRE 496 0 496 -32
WIRE 496 0 480 0
WIRE 560 0 496 0
WIRE 608 0 608 -16
WIRE 64 32 64 0
WIRE 240 64 240 32
WIRE 416 64 416 32
WIRE 416 64 240 64
WIRE 240 96 240 64
WIRE 240 96 64 96
WIRE 336 112 336 0
WIRE 576 112 576 64
WIRE 576 112 336 112
WIRE 240 144 240 96
FLAG 704 -32 0
FLAG 240 144 0
FLAG 416 -192 vdd
FLAG 176 0 in0
FLAG 320 0 in1
FLAG 480 0 out
FLAG 608 -128 fb
SYMBOL voltage 704 -160 R0
WINDOW 123 0 0 Left 0
WINDOW 39 0 0 Left 0
SYMATTR InstName V1
SYMATTR Value 15
SYMBOL buffer_inv1 224 0 R0
SYMATTR InstName U5
SYMATTR Value CD4049UB
SYMBOL buffer_inv1 400 0 R0
SYMATTR InstName U1
SYMATTR Value CD4049UB
SYMBOL BuzFB 576 32 R0
SYMATTR InstName X1
SYMBOL res 320 -128 R0
SYMATTR InstName R1
SYMATTR Value 1Meg
SYMBOL res 128 -128 R0
SYMATTR InstName R2
SYMATTR Value 1.6Meg
SYMBOL cap 480 -96 R0
SYMATTR InstName C1
SYMATTR Value 1000p
SYMBOL res 592 -112 R0
SYMATTR InstName R3
SYMATTR Value 1k
SYMBOL diode 80 0 R180
WINDOW 0 24 64 Left 2
WINDOW 3 24 0 Left 2
SYMATTR InstName D1
SYMATTR Value 1N4148
SYMBOL diode 80 96 R180
WINDOW 0 24 64 Left 2
WINDOW 3 24 0 Left 2
SYMATTR InstName D2
SYMATTR Value 1N4148
TEXT 64 -264 Left 2 !.options plotwinsize=0
TEXT 64 -304 Left 2 !.inc cd4049ub.sub
TEXT 64 -344 Left 2 !.tran 50m
