Version 4
SHEET 1 3040 2836
WIRE 1712 2192 1632 2192
WIRE 1824 2192 1792 2192
WIRE 2000 2192 1888 2192
WIRE 2048 2192 2000 2192
WIRE 1632 2208 1632 2192
WIRE 2000 2208 2000 2192
WIRE 1632 2304 1632 2288
WIRE 2000 2320 2000 2288
WIRE 1776 2560 1776 2528
WIRE 1936 2560 1936 2528
WIRE 1776 2672 1776 2640
WIRE 1840 2672 1776 2672
WIRE 1936 2672 1936 2640
WIRE 1936 2672 1840 2672
WIRE 1840 2704 1840 2672
FLAG 2000 2320 0
FLAG 1632 2304 0
FLAG 2048 2192 OUT
FLAG 1840 2704 0
DATAFLAG 1776 2528 ""
DATAFLAG 1936 2528 ""
SYMBOL MISC\\XTAL 1824 2208 R270
WINDOW 0 32 32 VTop 2
WINDOW 3 0 32 VBottom 2
SYMATTR InstName Y1
SYMATTR Value {Cs}
SYMATTR SpiceLine Rser={Rs} Lser={Ls} Cpar={Cp}
SYMBOL VOLTAGE 1632 2192 R0
WINDOW 123 24 132 Left 2
WINDOW 39 0 0 Left 2
SYMATTR Value2 AC 2
SYMATTR InstName V1
SYMATTR Value ""
SYMBOL res 1696 2208 R270
WINDOW 0 32 56 VTop 2
WINDOW 3 0 56 VBottom 2
SYMATTR InstName R1
SYMATTR Value 50
SYMBOL res 2016 2304 R180
WINDOW 0 36 76 Left 2
WINDOW 3 36 40 Left 2
SYMATTR InstName R2
SYMATTR Value 1k
SYMBOL bv 1776 2544 R0
SYMATTR InstName B1
SYMATTR Value V={Ls}
SYMBOL bv 1936 2544 R0
SYMATTR InstName B2
SYMATTR Value V={Cs}
TEXT 1672 2104 Left 2 !.ac dec 1001 2000 4000
TEXT 1144 1992 Left 2 ;Crystal model from easily measurable parameters
TEXT 1136 2112 Left 2 !*serial freq\n.param fs=3360\n*difference between serial and // freq \n.params df=220\n.params Rs=114.948\n.params Cp=66e-9\n.params Cs=2.0*cp*df/fs\n.params Ls=1/(4*pi*pi*fs*fs*Cs)
TEXT 1432 2024 Top 1 ;This example schematic is supplied for informational/educational purposes only.\nContributed by Dominique Szymik.
