Version 4
SHEET 1 880 680
WIRE 128 80 -80 80
WIRE 128 128 128 80
WIRE 208 128 176 128
WIRE 208 192 208 128
WIRE 208 192 144 192
WIRE -80 224 -80 80
WIRE 144 256 144 192
WIRE -80 368 -80 304
WIRE 144 368 144 336
WIRE 144 368 -80 368
WIRE 144 400 144 368
FLAG 144 400 0
SYMBOL BuzFB 144 160 R0
WINDOW 0 48 0 Invisible 2
SYMATTR InstName X1
SYMATTR Value ""
SYMBOL res 128 240 R0
SYMATTR InstName R1
SYMATTR Value 1k
SYMBOL voltage -80 208 R0
WINDOW 0 24 16 Invisible 2
WINDOW 3 24 96 Invisible 2
WINDOW 123 0 0 Left 0
WINDOW 39 0 0 Left 0
SYMATTR InstName V1
SYMATTR Value SINE()
TEXT 224 72 Left 2 ;CHA
TEXT 224 232 Left 2 ;CHB
LINE Normal 288 80 144 80
LINE Normal 176 48 144 80
LINE Normal 176 112 144 80
LINE Normal 304 240 160 240
LINE Normal 192 208 160 240
LINE Normal 192 272 160 240
