Version 4
SHEET 1 880 680
WIRE 16 112 -48 112
WIRE 144 112 96 112
WIRE 208 112 144 112
WIRE 352 112 304 112
WIRE 432 112 352 112
WIRE 432 128 432 112
WIRE -48 144 -48 112
WIRE 208 192 176 192
WIRE 336 192 304 192
WIRE -48 304 -48 224
WIRE 176 304 176 192
WIRE 176 304 -48 304
WIRE 336 304 336 192
WIRE 336 304 176 304
WIRE 432 304 432 208
WIRE 432 304 336 304
WIRE 336 336 336 304
FLAG 336 336 0
FLAG 352 112 out
FLAG 144 112 in
SYMBOL XMFR1 256 144 R0
SYMATTR InstName X1
SYMATTR SpiceLine RATIO=2
SYMBOL res 112 96 R90
WINDOW 0 0 56 VBottom 2
WINDOW 3 32 56 VTop 2
SYMATTR InstName R1
SYMATTR Value 1m
SYMBOL res 448 224 R180
WINDOW 0 36 76 Left 2
WINDOW 3 36 40 Left 2
SYMATTR InstName R2
SYMATTR Value 1Meg
SYMBOL voltage -48 128 R0
WINDOW 123 0 0 Left 0
WINDOW 39 0 0 Left 0
SYMATTR InstName V1
SYMATTR Value SINE(0 1 1k)
TEXT -82 360 Left 2 !.tran 10m
